tests/data/upgrade-models/sb10_p12uhs0_1247_trans_301/p12udt1277/OpenDSS/PV_Loads.dss
new load.load_p12ulv1 conn=wye bus1=p12ulv1.1.2 kv=0.208 vminpu=0.8 vmaxpu=1.2 model=1 kw=12.08845707307395 kvar=2.73181200648314 phases=2
new load.load_p12ulv131 conn=wye bus1=p12ulv131.1.2 kv=0.208 vminpu=0.8 vmaxpu=1.2 model=1 kw=8.464114024336961 kvar=0.5026635699173772 phases=2
new load.load_p12ulv898 conn=wye bus1=p12ulv898.1.2.3 kv=0.48 vminpu=0.8 vmaxpu=1.2 model=1 kw=19.208769577918048 kvar=4.487685457479747 phases=3
new load.load_p12ulv899 conn=wye bus1=p12ulv899.1.2 kv=0.208 vminpu=0.8 vmaxpu=1.2 model=1 kw=5.213919833337116 kvar=1.1100614154948314 phases=2
new load.load_p12ulv900 conn=wye bus1=p12ulv900.1.2 kv=0.208 vminpu=0.8 vmaxpu=1.2 model=1 kw=4.485437932962169 kvar=1.2320292337744743 phases=2
new load.load_p12ulv3714 conn=wye bus1=p12ulv3714.1.2 kv=0.208 vminpu=0.8 vmaxpu=1.2 model=1 kw=7.649955877384529 kvar=0.2511064270944685 phases=2
new load.load_p12ulv3715 conn=wye bus1=p12ulv3715.1.2 kv=0.208 vminpu=0.8 vmaxpu=1.2 model=1 kw=2.9573786406508327 kvar=0.7333185508455266 phases=2
new load.load_p12ulv3717 conn=wye bus1=p12ulv3717.1.2 kv=0.208 vminpu=0.8 vmaxpu=1.2 model=1 kw=4.807487583077195 kvar=1.0172118426808288 phases=2
new load.load_p12ulv3718 conn=wye bus1=p12ulv3718.1.2 kv=0.208 vminpu=0.8 vmaxpu=1.2 model=1 kw=4.547522341291233 kvar=1.2777819240046533 phases=2
new load.load_p12ulv3719 conn=wye bus1=p12ulv3719.1.2 kv=0.208 vminpu=0.8 vmaxpu=1.2 model=1 kw=10.510645604504855 kvar=0.11353283420394485 phases=2
new load.load_p12ulv4471 conn=wye bus1=p12ulv4471.1.2 kv=0.208 vminpu=0.8 vmaxpu=1.2 model=1 kw=5.829973892362935 kvar=1.153516404485815 phases=2
new load.load_p12ulv4482 conn=wye bus1=p12ulv4482.1.2 kv=0.208 vminpu=0.8 vmaxpu=1.2 model=1 kw=16.774767212325326 kvar=1.7697875010359772 phases=2
new load.load_p12ulv4515 conn=wye bus1=p12ulv4515.1.2 kv=0.208 vminpu=0.8 vmaxpu=1.2 model=1 kw=8.464114024336961 kvar=0.5026635699173772 phases=2
new load.load_p12ulv4522 conn=wye bus1=p12ulv4522.1.2 kv=0.208 vminpu=0.8 vmaxpu=1.2 model=1 kw=6.051155824753024 kvar=1.2959815382434907 phases=2
new load.load_p12ulv4534 conn=wye bus1=p12ulv4534.1.2 kv=0.208 vminpu=0.8 vmaxpu=1.2 model=1 kw=5.213919833337116 kvar=1.1100614154948314 phases=2
new load.load_p12ulv4536 conn=wye bus1=p12ulv4536.1.2 kv=0.208 vminpu=0.8 vmaxpu=1.2 model=1 kw=5.433821619791644 kvar=1.6465472737477893 phases=2
new load.load_p12ulv5451 conn=wye bus1=p12ulv5451.1.2 kv=0.208 vminpu=0.8 vmaxpu=1.2 model=1 kw=3.2647734139240083 kvar=0.8051034242342747 phases=2
new load.load_p12ulv5457 conn=wye bus1=p12ulv5457.1.2 kv=0.208 vminpu=0.8 vmaxpu=1.2 model=1 kw=9.400353029160934 kvar=1.8879183244894053 phases=2
new load.load_p12ulv5474 conn=wye bus1=p12ulv5474.1.2 kv=0.208 vminpu=0.8 vmaxpu=1.2 model=1 kw=4.683107104578539 kvar=1.4057764239831096 phases=2
new load.load_p12ulv5478 conn=wye bus1=p12ulv5478.1.2 kv=0.208 vminpu=0.8 vmaxpu=1.2 model=1 kw=4.485437932962169 kvar=1.2320292337744743 phases=2
new load.load_p12ulv5483 conn=wye bus1=p12ulv5483.1.2 kv=0.208 vminpu=0.8 vmaxpu=1.2 model=1 kw=8.555375427550112 kvar=2.1241515173094436 phases=2
new load.load_p12ulv5487 conn=wye bus1=p12ulv5487.1.2 kv=0.208 vminpu=0.8 vmaxpu=1.2 model=1 kw=3.9044227479528986 kvar=1.0539197898477641 phases=2
new load.load_p12ulv5495 conn=wye bus1=p12ulv5495.1.2 kv=0.208 vminpu=0.8 vmaxpu=1.2 model=1 kw=5.777385723181902 kvar=1.3094653192452401 phases=2
new load.load_p12ulv5503 conn=wye bus1=p12ulv5503.1.2 kv=0.208 vminpu=0.8 vmaxpu=1.2 model=1 kw=13.827056580793357 kvar=3.188775857925145 phases=2
new load.load_p12ulv5504 conn=wye bus1=p12ulv5504.1.2 kv=0.208 vminpu=0.8 vmaxpu=1.2 model=1 kw=12.08845707307395 kvar=2.73181200648314 phases=2
new load.load_p12ulv5512 conn=wye bus1=p12ulv5512.1.2 kv=0.208 vminpu=0.8 vmaxpu=1.2 model=1 kw=5.255544408875697 kvar=1.3939373331337335 phases=2
new load.load_p12ulv5521 conn=wye bus1=p12ulv5521.1.2 kv=0.208 vminpu=0.8 vmaxpu=1.2 model=1 kw=8.464114024336961 kvar=0.5026635699173772 phases=2
new load.load_p12ulv5524 conn=wye bus1=p12ulv5524.1.2 kv=0.208 vminpu=0.8 vmaxpu=1.2 model=1 kw=6.051155824753024 kvar=1.2959815382434907 phases=2
new load.load_p12ulv5527 conn=wye bus1=p12ulv5527.1.2 kv=0.208 vminpu=0.8 vmaxpu=1.2 model=1 kw=6.531970230934735 kvar=1.5760951695448195 phases=2
new load.load_p12ulv5532 conn=wye bus1=p12ulv5532.1.2 kv=0.208 vminpu=0.8 vmaxpu=1.2 model=1 kw=5.885658138096062 kvar=0.05112176032164189 phases=2
new load.load_p12ulv5600 conn=wye bus1=p12ulv5600.1.2 kv=0.208 vminpu=0.8 vmaxpu=1.2 model=1 kw=5.213919833337116 kvar=1.1100614154948314 phases=2
new load.load_p12ulv5604 conn=wye bus1=p12ulv5604.1.2 kv=0.208 vminpu=0.8 vmaxpu=1.2 model=1 kw=8.482693440633085 kvar=0.7449079226812287 phases=2
new load.load_p12ulv5607 conn=wye bus1=p12ulv5607.1.2 kv=0.208 vminpu=0.8 vmaxpu=1.2 model=1 kw=6.666850531326942 kvar=0.6884358063797636 phases=2
new load.load_p12ulv5612 conn=wye bus1=p12ulv5612.1.2 kv=0.208 vminpu=0.8 vmaxpu=1.2 model=1 kw=6.8652480973376715 kvar=1.7583950601246034 phases=2
new load.load_p12ulv5613 conn=wye bus1=p12ulv5613.1.2 kv=0.208 vminpu=0.8 vmaxpu=1.2 model=1 kw=5.213919833337116 kvar=1.1100614154948314 phases=2
new load.load_p12ulv7592 conn=wye bus1=p12ulv7592.1.2 kv=0.208 vminpu=0.8 vmaxpu=1.2 model=1 kw=3.2647734139240083 kvar=0.8051034242342747 phases=2
new load.load_p12ulv12030 conn=wye bus1=p12ulv12030.1.2 kv=0.208 vminpu=0.8 vmaxpu=1.2 model=1 kw=4.334975544945445 kvar=1.1515383927259575 phases=2
new load.load_p12ulv12037 conn=wye bus1=p12ulv12037.1.2 kv=0.208 vminpu=0.8 vmaxpu=1.2 model=1 kw=10.771545642957173 kvar=3.2018345421399954 phases=2
new load.load_p12ulv12589 conn=wye bus1=p12ulv12589.1.2 kv=0.208 vminpu=0.8 vmaxpu=1.2 model=1 kw=12.08845707307395 kvar=2.73181200648314 phases=2
new load.load_p12ulv12590 conn=wye bus1=p12ulv12590.1.2 kv=0.208 vminpu=0.8 vmaxpu=1.2 model=1 kw=5.213919833337116 kvar=1.1100614154948314 phases=2
new load.load_p12ulv12593 conn=wye bus1=p12ulv12593.1.2 kv=0.208 vminpu=0.8 vmaxpu=1.2 model=1 kw=4.268578189116569 kvar=0.20855298649337212 phases=2
new load.load_p12ulv12594 conn=wye bus1=p12ulv12594.1.2 kv=0.208 vminpu=0.8 vmaxpu=1.2 model=1 kw=6.051155824753024 kvar=1.2959815382434907 phases=2
new load.load_p12ulv12602 conn=wye bus1=p12ulv12602.1.2 kv=0.208 vminpu=0.8 vmaxpu=1.2 model=1 kw=6.379533415561484 kvar=1.5789978561471458 phases=2
new load.load_p12ulv12846 conn=wye bus1=p12ulv12846.1.2 kv=0.208 vminpu=0.8 vmaxpu=1.2 model=1 kw=6.379533415561484 kvar=1.5789978561471458 phases=2
new load.load_p12ulv12854 conn=wye bus1=p12ulv12854.1.2 kv=0.208 vminpu=0.8 vmaxpu=1.2 model=1 kw=6.051155824753024 kvar=1.2959815382434907 phases=2
new load.load_p12ulv16360 conn=wye bus1=p12ulv16360.1.2 kv=0.208 vminpu=0.8 vmaxpu=1.2 model=1 kw=8.997962463598574 kvar=1.7763515787979354 phases=2
new load.load_p12ulv16381 conn=wye bus1=p12ulv16381.1.2 kv=0.208 vminpu=0.8 vmaxpu=1.2 model=1 kw=6.514148852972977 kvar=0.04493949419213512 phases=2
new load.load_p12ulv16385 conn=wye bus1=p12ulv16385.1.2 kv=0.208 vminpu=0.8 vmaxpu=1.2 model=1 kw=5.96400313247771 kvar=1.324916206850953 phases=2
new load.load_p12ulv16400 conn=wye bus1=p12ulv16400.1.2 kv=0.208 vminpu=0.8 vmaxpu=1.2 model=1 kw=4.885107095402903 kvar=1.3868528876992121 phases=2
new load.load_p12ulv16423 conn=wye bus1=p12ulv16423.1.2 kv=0.208 vminpu=0.8 vmaxpu=1.2 model=1 kw=7.881667037731838 kvar=0.23958082319935112 phases=2
new load.load_p12ulv16429 conn=wye bus1=p12ulv16429.1.2 kv=0.208 vminpu=0.8 vmaxpu=1.2 model=1 kw=6.909190229729111 kvar=0.535349106818102 phases=2
new load.load_p12ulv20600 conn=wye bus1=p12ulv20600.1.2 kv=0.208 vminpu=0.8 vmaxpu=1.2 model=1 kw=2.807648875546155 kvar=0.6168459951591971 phases=2
new load.load_p12ulv20601 conn=wye bus1=p12ulv20601.1.2 kv=0.208 vminpu=0.8 vmaxpu=1.2 model=1 kw=7.805774430439326 kvar=2.222462770684314 phases=2
new load.load_p12ulv20603 conn=wye bus1=p12ulv20603.1.2 kv=0.208 vminpu=0.8 vmaxpu=1.2 model=1 kw=5.213919833337116 kvar=1.1100614154948314 phases=2
new load.load_p12ulv20604 conn=wye bus1=p12ulv20604.1.2 kv=0.208 vminpu=0.8 vmaxpu=1.2 model=1 kw=7.805774430439326 kvar=2.222462770684314 phases=2
new load.load_p12ulv20606 conn=wye bus1=p12ulv20606.1.2.3 kv=0.48 vminpu=0.8 vmaxpu=1.2 model=1 kw=31.715469869710798 kvar=6.5692811326563865 phases=3
new load.load_p12ulv20609 conn=wye bus1=p12ulv20609.1.2 kv=0.208 vminpu=0.8 vmaxpu=1.2 model=1 kw=0.5203854847014576 kvar=0.2783192505417943 phases=2
new load.load_p12ulv20610 conn=wye bus1=p12ulv20610.1.2 kv=0.208 vminpu=0.8 vmaxpu=1.2 model=1 kw=5.429262436796697 kvar=0.22528964316099362 phases=2
new load.load_p12ulv20612 conn=wye bus1=p12ulv20612.1.2 kv=0.208 vminpu=0.8 vmaxpu=1.2 model=1 kw=6.8652480973376715 kvar=1.7583950601246034 phases=2
new load.load_p12ulv20613 conn=wye bus1=p12ulv20613.1.2 kv=0.208 vminpu=0.8 vmaxpu=1.2 model=1 kw=5.340789570576971 kvar=1.665377331077049 phases=2
new load.load_p12ulv20614 conn=wye bus1=p12ulv20614.1.2 kv=0.208 vminpu=0.8 vmaxpu=1.2 model=1 kw=2.3197390934211106 kvar=0.8731299462807531 phases=2
new load.load_p12ulv20615 conn=wye bus1=p12ulv20615.1.2 kv=0.208 vminpu=0.8 vmaxpu=1.2 model=1 kw=1.54541106447827 kvar=0.6713657349582733 phases=2
new load.load_p12ulv20617 conn=wye bus1=p12ulv20617.1.2 kv=0.208 vminpu=0.8 vmaxpu=1.2 model=1 kw=1.1255959727724272 kvar=0.45733151297287133 phases=2
new load.load_p12ulv20618 conn=wye bus1=p12ulv20618.1.2 kv=0.208 vminpu=0.8 vmaxpu=1.2 model=1 kw=4.086031330922327 kvar=1.0938468429677766 phases=2
new load.load_p12ulv20619 conn=wye bus1=p12ulv20619.1.2 kv=0.208 vminpu=0.8 vmaxpu=1.2 model=1 kw=2.1890960238191406 kvar=0.7411625516443732 phases=2
new load.load_p12ulv20620 conn=wye bus1=p12ulv20620.1.2 kv=0.208 vminpu=0.8 vmaxpu=1.2 model=1 kw=7.591106032018375 kvar=1.9878786493574003 phases=2
new load.load_p12ulv20621 conn=wye bus1=p12ulv20621.1.2 kv=0.208 vminpu=0.8 vmaxpu=1.2 model=1 kw=8.464114024336961 kvar=0.5026635699173772 phases=2
new load.load_p12ulv20623 conn=wye bus1=p12ulv20623.1.2 kv=0.208 vminpu=0.8 vmaxpu=1.2 model=1 kw=5.213919833337116 kvar=1.1100614154948314 phases=2
new load.load_p12ulv20624 conn=wye bus1=p12ulv20624.1.2 kv=0.208 vminpu=0.8 vmaxpu=1.2 model=1 kw=5.213919833337116 kvar=1.1100614154948314 phases=2
new load.load_p12ulv20628 conn=wye bus1=p12ulv20628.1.2 kv=0.208 vminpu=0.8 vmaxpu=1.2 model=1 kw=7.243991140734239 kvar=1.6202733033693992 phases=2
new load.load_p12ulv20629 conn=wye bus1=p12ulv20629.1.2 kv=0.208 vminpu=0.8 vmaxpu=1.2 model=1 kw=5.00248993080179 kvar=1.4614386630787612 phases=2
new load.load_p12ulv20630 conn=wye bus1=p12ulv20630.1.2 kv=0.208 vminpu=0.8 vmaxpu=1.2 model=1 kw=0.20007298123199987 kvar=0.1404322370565456 phases=2
new load.load_p12ulv20631 conn=wye bus1=p12ulv20631.1.2 kv=0.208 vminpu=0.8 vmaxpu=1.2 model=1 kw=2.68805964179433 kvar=1.016417579723379 phases=2
new load.load_p12ulv20633 conn=wye bus1=p12ulv20633.1.2 kv=0.208 vminpu=0.8 vmaxpu=1.2 model=1 kw=7.805774430439326 kvar=2.222462770684314 phases=2
new load.load_p12ulv20634 conn=wye bus1=p12ulv20634.1.2 kv=0.208 vminpu=0.8 vmaxpu=1.2 model=1 kw=1.9036666541970855 kvar=0.6680660386405408 phases=2
new load.load_p12ulv20635 conn=wye bus1=p12ulv20635.1.2 kv=0.208 vminpu=0.8 vmaxpu=1.2 model=1 kw=4.6536658364487655 kvar=1.3213241310776664 phases=2
new load.load_p12ulv20637 conn=wye bus1=p12ulv20637.1.2 kv=0.208 vminpu=0.8 vmaxpu=1.2 model=1 kw=12.08845707307395 kvar=2.73181200648314 phases=2
new load.load_p12ulv20638 conn=wye bus1=p12ulv20638.1.2 kv=0.208 vminpu=0.8 vmaxpu=1.2 model=1 kw=7.369863147249493 kvar=0.5287117453332205 phases=2
new load.load_p12ulv20639 conn=wye bus1=p12ulv20639.1.2 kv=0.208 vminpu=0.8 vmaxpu=1.2 model=1 kw=4.595665456336308 kvar=1.2219446431394907 phases=2
new load.load_p12ulv20642 conn=wye bus1=p12ulv20642.1.2 kv=0.208 vminpu=0.8 vmaxpu=1.2 model=1 kw=1.0459179665280087 kvar=0.6719761424132926 phases=2
new load.load_p12ulv24696 conn=wye bus1=p12ulv24696.1.2 kv=0.208 vminpu=0.8 vmaxpu=1.2 model=1 kw=6.051155824753024 kvar=1.2959815382434907 phases=2
new load.load_p12ulv24707 conn=wye bus1=p12ulv24707.1.2 kv=0.208 vminpu=0.8 vmaxpu=1.2 model=1 kw=6.1544312075293135 kvar=0.0396919232834139 phases=2
new load.load_p12ulv24714 conn=wye bus1=p12ulv24714.1.2 kv=0.208 vminpu=0.8 vmaxpu=1.2 model=1 kw=4.415259483787724 kvar=0.9510497937124147 phases=2
new load.load_p12ulv24717 conn=wye bus1=p12ulv24717.1.2 kv=0.208 vminpu=0.8 vmaxpu=1.2 model=1 kw=4.474036330197581 kvar=1.1613207417024156 phases=2
new load.load_p12ulv24726 conn=wye bus1=p12ulv24726.1.2 kv=0.208 vminpu=0.8 vmaxpu=1.2 model=1 kw=4.838118617387474 kvar=1.3823296448025202 phases=2
new load.load_p12ulv24751 conn=wye bus1=p12ulv24751.1.2 kv=0.208 vminpu=0.8 vmaxpu=1.2 model=1 kw=5.268764757636796 kvar=1.4816223451991584 phases=2
new load.load_p12ulv24772 conn=wye bus1=p12ulv24772.1.2 kv=0.208 vminpu=0.8 vmaxpu=1.2 model=1 kw=3.678351203237706 kvar=0.911444263333235 phases=2
new load.load_p12ulv24788 conn=wye bus1=p12ulv24788.1.2 kv=0.208 vminpu=0.8 vmaxpu=1.2 model=1 kw=5.963080633442135 kvar=0.48885479732224646 phases=2
new load.load_p12ulv24790 conn=wye bus1=p12ulv24790.1.2 kv=0.208 vminpu=0.8 vmaxpu=1.2 model=1 kw=4.829352661276621 kvar=1.3587165386894773 phases=2
new load.load_p12ulv24840 conn=wye bus1=p12ulv24840.1.2 kv=0.208 vminpu=0.8 vmaxpu=1.2 model=1 kw=4.922928400878547 kvar=1.389285708448334 phases=2
new load.load_p12ulv24869 conn=wye bus1=p12ulv24869.1.2 kv=0.208 vminpu=0.8 vmaxpu=1.2 model=1 kw=6.051155824753024 kvar=1.2959815382434907 phases=2
new load.load_p12ulv25381 conn=wye bus1=p12ulv25381.1.2 kv=0.208 vminpu=0.8 vmaxpu=1.2 model=1 kw=2.6582228287500684 kvar=1.4027484255113005 phases=2
new load.load_p12ulv25483 conn=wye bus1=p12ulv25483.1.2.3 kv=0.48 vminpu=0.8 vmaxpu=1.2 model=1 kw=24.556756822322196 kvar=6.150888417501412 phases=3
new load.load_p12ulv25495 conn=wye bus1=p12ulv25495.1.2 kv=0.208 vminpu=0.8 vmaxpu=1.2 model=1 kw=12.08845707307395 kvar=2.73181200648314 phases=2
new load.load_p12ulv25533 conn=wye bus1=p12ulv25533.1.2 kv=0.208 vminpu=0.8 vmaxpu=1.2 model=1 kw=4.0983831131140604 kvar=2.3013075525113877 phases=2
new load.load_p12ulv25604 conn=wye bus1=p12ulv25604.1.2.3 kv=0.48 vminpu=0.8 vmaxpu=1.2 model=1 kw=17.253921418256052 kvar=3.8788946973254115 phases=3
new load.load_p12ulv25832 conn=wye bus1=p12ulv25832.1.2 kv=0.208 vminpu=0.8 vmaxpu=1.2 model=1 kw=5.340789570576971 kvar=1.665377331077049 phases=2
new load.load_p12ulv25846 conn=wye bus1=p12ulv25846.1.2 kv=0.208 vminpu=0.8 vmaxpu=1.2 model=1 kw=7.805774430439326 kvar=2.222462770684314 phases=2
new load.load_p12ulv25889 conn=wye bus1=p12ulv25889.1.2 kv=0.208 vminpu=0.8 vmaxpu=1.2 model=1 kw=10.771545642957173 kvar=3.2018345421399954 phases=2
new load.load_p12ulv33446 conn=wye bus1=p12ulv33446.1.2 kv=0.208 vminpu=0.8 vmaxpu=1.2 model=1 kw=4.616955729483228 kvar=1.2615503660968075 phases=2
new load.load_p12ulv33447 conn=wye bus1=p12ulv33447.1.2 kv=0.208 vminpu=0.8 vmaxpu=1.2 model=1 kw=8.607366381316188 kvar=0.5188154153628112 phases=2
new load.load_p12ulv33453 conn=wye bus1=p12ulv33453.1.2 kv=0.208 vminpu=0.8 vmaxpu=1.2 model=1 kw=5.213919833337116 kvar=1.1100614154948314 phases=2
new load.load_p12ulv33461 conn=wye bus1=p12ulv33461.1.2 kv=0.208 vminpu=0.8 vmaxpu=1.2 model=1 kw=5.433821619791644 kvar=1.6465472737477893 phases=2
new load.load_p12ulv33472 conn=wye bus1=p12ulv33472.1.2 kv=0.208 vminpu=0.8 vmaxpu=1.2 model=1 kw=5.213919833337116 kvar=1.1100614154948314 phases=2
new load.load_p12ulv33475 conn=wye bus1=p12ulv33475.1.2 kv=0.208 vminpu=0.8 vmaxpu=1.2 model=1 kw=7.268326734966122 kvar=1.726590328183749 phases=2
new load.load_p12ulv33481 conn=wye bus1=p12ulv33481.1.2 kv=0.208 vminpu=0.8 vmaxpu=1.2 model=1 kw=3.7083387832651584 kvar=0.8824667805472646 phases=2
new load.load_p12ulv33504 conn=wye bus1=p12ulv33504.1.2 kv=0.208 vminpu=0.8 vmaxpu=1.2 model=1 kw=4.3322102935663525 kvar=1.2634323810786823 phases=2
new load.load_p12ulv33526 conn=wye bus1=p12ulv33526.1.2 kv=0.208 vminpu=0.8 vmaxpu=1.2 model=1 kw=5.5870773940808816 kvar=0.037844278067981456 phases=2
new load.load_p12ulv33545 conn=wye bus1=p12ulv33545.1.2 kv=0.208 vminpu=0.8 vmaxpu=1.2 model=1 kw=6.051155824753024 kvar=1.2959815382434907 phases=2
new load.load_p12ulv34300 conn=wye bus1=p12ulv34300.1.2 kv=0.208 vminpu=0.8 vmaxpu=1.2 model=1 kw=4.623449131943891 kvar=1.8582185860035427 phases=2
new load.load_p12ulv36386 conn=wye bus1=p12ulv36386.1.2 kv=0.208 vminpu=0.8 vmaxpu=1.2 model=1 kw=7.0912290994082925 kvar=1.692607214741418 phases=2
new load.load_p12ulv36473 conn=wye bus1=p12ulv36473.1.2 kv=0.208 vminpu=0.8 vmaxpu=1.2 model=1 kw=14.083949234231662 kvar=3.3675499223183363 phases=2
new load.load_p12ulv36499 conn=wye bus1=p12ulv36499.1.2 kv=0.208 vminpu=0.8 vmaxpu=1.2 model=1 kw=13.734985076685396 kvar=2.543266997877167 phases=2
new load.load_p12ulv36512 conn=wye bus1=p12ulv36512.1.2 kv=0.208 vminpu=0.8 vmaxpu=1.2 model=1 kw=5.767030686706276 kvar=0.3797883771476141 phases=2
new load.load_p12ulv36515 conn=wye bus1=p12ulv36515.1.2 kv=0.208 vminpu=0.8 vmaxpu=1.2 model=1 kw=1.2311082422377293 kvar=0.7803515164053434 phases=2
new load.load_p12ulv36516 conn=wye bus1=p12ulv36516.1.2 kv=0.208 vminpu=0.8 vmaxpu=1.2 model=1 kw=2.2342349465388205 kvar=1.1021636064873417 phases=2
new load.load_p12ulv36642 conn=wye bus1=p12ulv36642.1.2 kv=0.208 vminpu=0.8 vmaxpu=1.2 model=1 kw=13.447563558202374 kvar=4.721222603263056 phases=2
new load.load_p12ulv36658 conn=wye bus1=p12ulv36658.1.2 kv=0.208 vminpu=0.8 vmaxpu=1.2 model=1 kw=1.9036666541970855 kvar=0.6680660386405408 phases=2
new load.load_p12ulv36659 conn=wye bus1=p12ulv36659.1.2 kv=0.208 vminpu=0.8 vmaxpu=1.2 model=1 kw=11.1500948784449 kvar=2.6227815659814535 phases=2
new load.load_p12ulv36660 conn=wye bus1=p12ulv36660.1.2 kv=0.208 vminpu=0.8 vmaxpu=1.2 model=1 kw=1.210637164085238 kvar=0.7757289461635335 phases=2
new load.load_p12ulv36679 conn=wye bus1=p12ulv36679.1.2 kv=0.208 vminpu=0.8 vmaxpu=1.2 model=1 kw=3.4285251235259904 kvar=0.8333542283754922 phases=2
new load.load_p12ulv36705 conn=wye bus1=p12ulv36705.1.2 kv=0.208 vminpu=0.8 vmaxpu=1.2 model=1 kw=7.983482757039484 kvar=0.45986337639116476 phases=2
new load.load_p12ulv36706 conn=wye bus1=p12ulv36706.1.2 kv=0.208 vminpu=0.8 vmaxpu=1.2 model=1 kw=2.488020244669249 kvar=0.21297406120020693 phases=2
new load.load_p12ulv36709 conn=wye bus1=p12ulv36709.1.2 kv=0.208 vminpu=0.8 vmaxpu=1.2 model=1 kw=4.888528067676812 kvar=1.336461456763855 phases=2
new load.load_p12ulv36720 conn=wye bus1=p12ulv36720.1.2 kv=0.208 vminpu=0.8 vmaxpu=1.2 model=1 kw=0.9170189047167304 kvar=0.39039844187325473 phases=2
new load.load_p12ulv36738 conn=wye bus1=p12ulv36738.1.2 kv=0.208 vminpu=0.8 vmaxpu=1.2 model=1 kw=5.85811281061531 kvar=1.3772189802896702 phases=2
